Version 4
SHEET 1 2360 1216
WIRE 240 208 64 208
WIRE 464 208 240 208
WIRE 816 208 464 208
WIRE 464 304 464 208
WIRE 816 304 816 208
WIRE 512 320 496 320
WIRE 864 320 848 320
WIRE 416 384 400 384
WIRE 512 384 496 384
WIRE 768 384 752 384
WIRE 864 384 848 384
WIRE 1168 384 1072 384
WIRE 1280 384 1248 384
WIRE 1376 384 1344 384
WIRE 1520 384 1376 384
WIRE 1744 384 1616 384
WIRE 1824 384 1744 384
WIRE 1968 384 1904 384
WIRE 1376 432 1376 384
WIRE 1520 432 1520 384
WIRE 1616 432 1616 384
WIRE 1744 432 1744 384
WIRE 1968 432 1968 384
WIRE 64 448 64 208
WIRE 464 448 464 416
WIRE 608 448 464 448
WIRE 1072 448 1072 384
WIRE 1072 448 608 448
WIRE 816 496 816 416
WIRE 944 496 816 496
WIRE 1072 496 944 496
WIRE 464 560 464 448
WIRE 816 560 816 496
WIRE 1072 560 1072 496
WIRE 1376 560 1376 496
WIRE 1376 560 1072 560
WIRE 1520 560 1520 512
WIRE 1520 560 1376 560
WIRE 1616 560 1616 512
WIRE 1680 560 1616 560
WIRE 1744 560 1744 496
WIRE 1744 560 1680 560
WIRE 1968 560 1968 512
WIRE 1968 560 1744 560
WIRE 512 576 496 576
WIRE 864 576 848 576
WIRE 1680 576 1680 560
WIRE 416 640 400 640
WIRE 512 640 496 640
WIRE 768 640 752 640
WIRE 864 640 848 640
WIRE 64 752 64 528
WIRE 240 752 64 752
WIRE 464 752 464 672
WIRE 464 752 240 752
WIRE 816 752 816 672
WIRE 816 752 464 752
WIRE 240 768 240 752
WIRE 160 1040 160 1024
WIRE 304 1040 304 1024
WIRE 448 1040 448 1024
WIRE 592 1040 592 1024
WIRE 304 1136 304 1120
WIRE 592 1136 592 1120
FLAG 240 768 0
FLAG 400 384 D1
FLAG 400 640 D2
FLAG 512 640 Tc2
FLAG 512 384 Tc1
FLAG 240 208 Vin
FLAG 608 448 Vpa
FLAG 160 1120 0
FLAG 160 944 D2
FLAG 304 944 D1
FLAG 752 1120 0
FLAG 752 1040 Tj1
FLAG 1040 1104 Vpa
FLAG 1152 1024 Vpa
FLAG 1152 1104 0
FLAG 1040 1024 Vin
FLAG 304 1136 Vpa
FLAG 512 576 Tj2
FLAG 512 320 Tj1
FLAG 864 1120 0
FLAG 864 1040 Tj2
FLAG 752 384 D3
FLAG 752 640 D4
FLAG 864 640 Tc2
FLAG 864 384 Tc1
FLAG 944 496 Vpb
FLAG 864 576 Tj2
FLAG 864 320 Tj1
FLAG 448 1120 0
FLAG 448 944 D4
FLAG 592 944 D3
FLAG 592 1136 Vpb
FLAG 1280 1104 Vpb
FLAG 1392 1024 Vpb
FLAG 1392 1104 0
FLAG 1280 1024 Vin
FLAG 1680 576 0
SYMBOL Wolfspeed/nmos_TO247_3L 416 560 R0
WINDOW 3 -124 -12 Left 2
WINDOW 0 11 -36 Left 2
SYMATTR Value C2M0025120D
SYMATTR InstName U2
SYMBOL voltage 752 1024 R0
SYMATTR InstName V1
SYMATTR Value 25
SYMBOL voltage 64 432 R0
SYMATTR InstName V2
SYMATTR Value 800
SYMATTR SpiceLine Rser=10m
SYMBOL voltage 160 1024 R0
WINDOW 0 40 47 Left 2
WINDOW 3 39 75 Invisible 2
SYMATTR InstName V3
SYMATTR Value PULSE(-4 15 {D/fs+Td} 10n 10n {(1-D)/fs-Td} {1/fs})
SYMBOL res 144 928 R0
WINDOW 0 44 50 Left 2
WINDOW 3 43 74 Left 2
SYMATTR InstName R2
SYMATTR Value 2.5
SYMBOL Wolfspeed/nmos_TO247_3L 416 304 R0
WINDOW 3 -125 -11 Left 2
WINDOW 0 10 -37 Left 2
SYMATTR Value C2M0025120D
SYMATTR InstName U1
SYMBOL voltage 304 1024 R0
WINDOW 0 40 47 Left 2
WINDOW 3 40 69 Invisible 2
SYMATTR InstName V4
SYMATTR Value PULSE(-4 15 {Td} 10n 10n {D/fs-Td} {1/fs})
SYMBOL res 288 928 R0
WINDOW 0 44 50 Left 2
WINDOW 3 43 74 Left 2
SYMATTR InstName R1
SYMATTR Value 2.5
SYMBOL res 1024 1008 R0
WINDOW 0 40 49 Left 2
SYMATTR InstName R3
SYMATTR Value 1Meg
SYMBOL res 1136 1008 R0
WINDOW 0 42 51 Left 2
SYMATTR InstName R4
SYMATTR Value 1Meg
SYMBOL voltage 864 1024 R0
SYMATTR InstName V5
SYMATTR Value 25
SYMBOL Wolfspeed/nmos_TO247_3L 768 560 R0
WINDOW 3 -124 -12 Left 2
WINDOW 0 11 -36 Left 2
SYMATTR Value C2M0025120D
SYMATTR InstName U4
SYMBOL Wolfspeed/nmos_TO247_3L 768 304 R0
WINDOW 3 -125 -11 Left 2
WINDOW 0 10 -37 Left 2
SYMATTR Value C2M0025120D
SYMATTR InstName U3
SYMBOL voltage 448 1024 R0
WINDOW 0 40 47 Left 2
WINDOW 3 39 75 Invisible 2
SYMATTR InstName V6
SYMATTR Value PULSE(-4 15 {Td+0.5*D/fs-0.5*(1-D)/fs} 10n 10n {(1-D)/fs-Td} {1/fs})
SYMBOL res 432 928 R0
WINDOW 0 44 50 Left 2
WINDOW 3 43 74 Left 2
SYMATTR InstName R5
SYMATTR Value 2.5
SYMBOL voltage 592 1024 R0
WINDOW 0 40 47 Left 2
WINDOW 3 40 69 Invisible 2
SYMATTR InstName V7
SYMATTR Value PULSE(-4 15 {(1-D)/fs+Td+0.5*D/fs-0.5*(1-D)/fs} 10n 10n {D/fs-Td} {1/fs})
SYMBOL res 576 928 R0
WINDOW 0 44 50 Left 2
WINDOW 3 43 74 Left 2
SYMATTR InstName R6
SYMATTR Value 2.5
SYMBOL res 1264 1008 R0
WINDOW 0 40 49 Left 2
SYMATTR InstName R7
SYMATTR Value 1Meg
SYMBOL res 1376 1008 R0
WINDOW 0 42 51 Left 2
SYMATTR InstName R8
SYMATTR Value 1Meg
SYMBOL ind2 1504 528 M180
WINDOW 0 -38 36 Left 2
WINDOW 3 -79 8 Left 2
SYMATTR InstName Lpt
SYMATTR Value 18.73µ
SYMATTR Type ind
SYMATTR SpiceLine Rser=25m
SYMBOL ind2 1632 528 R180
WINDOW 0 -39 36 Left 2
WINDOW 3 -80 10 Left 2
SYMATTR InstName Lst
SYMATTR Value 18.73µ
SYMATTR Type ind
SYMATTR SpiceLine Rser=25m
SYMBOL res 1952 416 R0
WINDOW 0 44 50 Left 2
WINDOW 3 41 76 Left 2
SYMATTR InstName RL
SYMATTR Value 50
SYMBOL cap 1760 496 R180
WINDOW 0 -32 76 Left 2
WINDOW 3 -74 51 Left 2
SYMATTR InstName Cst
SYMATTR Value 187.2n
SYMBOL cap 1392 496 R180
WINDOW 0 -33 76 Left 2
WINDOW 3 -74 50 Left 2
SYMATTR InstName Cpt
SYMATTR Value 187.2n
SYMBOL ind2 1264 400 M270
WINDOW 0 32 56 VTop 2
WINDOW 3 4 56 VBottom 2
SYMATTR InstName Lpi
SYMATTR Value 37.46µ
SYMATTR Type ind
SYMBOL cap 1280 400 R270
WINDOW 0 32 32 VTop 2
WINDOW 3 0 32 VBottom 2
SYMATTR InstName Cpi
SYMATTR Value 187.2n
SYMBOL ind2 1920 400 M270
WINDOW 0 32 56 VTop 2
WINDOW 3 4 56 VBottom 2
SYMATTR InstName Lsi
SYMATTR Value 18.73µ
SYMATTR Type ind
TEXT 424 112 Left 2 !.tran 0 1m 0 10n
TEXT 80 72 Left 2 !.lib "/Users/dthr001/Library/Application Support/LTspice/lib/sub/C2M0025120D.lib"
TEXT 320 144 Left 2 !.param Td=300n fs=85k D=0.75 Php=-90
TEXT 1496 352 Left 2 !K1 Lpt Lst 0.3
TEXT 1560 1096 Left 2 !.four 85k 10 50 I(Cpi)
