Version 4
SHEET 1 2360 1216
WIRE 144 208 64 208
WIRE 320 208 144 208
WIRE 640 208 400 208
WIRE 528 320 464 320
WIRE 640 320 640 208
WIRE 640 320 608 320
WIRE 688 320 640 320
WIRE 816 320 768 320
WIRE 1088 384 976 384
WIRE 1184 384 1088 384
WIRE 1312 384 1264 384
WIRE 1088 432 1088 384
WIRE 1312 432 1312 384
WIRE 64 448 64 208
WIRE 464 448 464 320
WIRE 608 448 464 448
WIRE 976 448 976 384
WIRE 976 448 608 448
WIRE 816 496 816 320
WIRE 880 496 816 496
WIRE 976 496 880 496
WIRE 464 560 464 448
WIRE 816 560 816 496
WIRE 976 560 976 496
WIRE 1088 560 1088 496
WIRE 1088 560 976 560
WIRE 1312 560 1312 512
WIRE 1312 560 1088 560
WIRE 512 576 496 576
WIRE 864 576 848 576
WIRE 416 640 400 640
WIRE 512 640 496 640
WIRE 768 640 752 640
WIRE 864 640 848 640
WIRE 64 752 64 528
WIRE 240 752 64 752
WIRE 464 752 464 672
WIRE 464 752 240 752
WIRE 816 752 816 672
WIRE 816 752 464 752
WIRE 240 768 240 752
WIRE 544 1008 544 992
WIRE 736 1008 736 992
FLAG 240 768 0
FLAG 400 640 D1
FLAG 512 640 Tc2
FLAG 144 208 Vin
FLAG 608 448 Vpa
FLAG 544 1088 0
FLAG 544 912 D1
FLAG 512 576 Tj2
FLAG 928 1088 0
FLAG 928 1008 Tj2
FLAG 752 640 D2
FLAG 864 640 Tc2
FLAG 880 496 Vpb
FLAG 864 576 Tj2
FLAG 736 1088 0
FLAG 736 912 D2
SYMBOL Wolfspeed/nmos_TO247_3L 416 560 R0
WINDOW 3 -124 -12 Left 2
WINDOW 0 11 -36 Left 2
SYMATTR Value C2M0025120D
SYMATTR InstName U1
SYMBOL voltage 64 432 R0
SYMATTR InstName V2
SYMATTR Value 200
SYMATTR SpiceLine Rser=10m
SYMBOL voltage 544 992 R0
WINDOW 0 40 47 Left 2
WINDOW 3 39 75 Invisible 2
SYMATTR InstName V1
SYMATTR Value PULSE(-4 15 0 10n 10n {0.5/fs} {1/fs})
SYMBOL res 528 896 R0
WINDOW 0 44 50 Left 2
WINDOW 3 43 74 Left 2
SYMATTR InstName R2
SYMATTR Value 2.5
SYMBOL voltage 928 992 R0
SYMATTR InstName V5
SYMATTR Value 25
SYMBOL Wolfspeed/nmos_TO247_3L 768 560 R0
WINDOW 3 -124 -12 Left 2
WINDOW 0 11 -36 Left 2
SYMATTR Value C2M0025120D
SYMATTR InstName U2
SYMBOL voltage 736 992 R0
WINDOW 0 40 47 Left 2
WINDOW 3 39 75 Invisible 2
SYMATTR InstName V3
SYMATTR Value PULSE(-4 15 {0.5/fs} 10n 10n {0.5/fs} {1/fs})
SYMBOL res 720 896 R0
WINDOW 0 44 50 Left 2
WINDOW 3 43 74 Left 2
SYMATTR InstName R5
SYMATTR Value 2.5
SYMBOL ind2 1280 400 M270
WINDOW 0 32 56 VTop 2
WINDOW 3 4 56 VBottom 2
SYMATTR InstName Lpt
SYMATTR Value 18.73µ
SYMATTR Type ind
SYMATTR SpiceLine Rser=25m
SYMBOL ind2 304 224 R270
WINDOW 0 32 56 VTop 2
WINDOW 3 4 56 VBottom 2
SYMATTR InstName Ldc
SYMATTR Value 300µ
SYMATTR Type ind
SYMATTR SpiceLine Rser=50m
SYMBOL cap 1104 496 R180
WINDOW 0 -33 76 Left 2
WINDOW 3 -74 50 Left 2
SYMATTR InstName Cpt
SYMATTR Value 180.0n
SYMBOL ind2 512 336 R270
WINDOW 0 32 56 VTop 2
WINDOW 3 4 56 VBottom 2
SYMATTR InstName Ltx1
SYMATTR Value 1m
SYMATTR Type ind
SYMATTR SpiceLine Rser=0.1
SYMBOL ind2 672 336 R270
WINDOW 0 32 56 VTop 2
WINDOW 3 4 56 VBottom 2
SYMATTR InstName Ltx2
SYMATTR Value 1m
SYMATTR Type ind
SYMATTR SpiceLine Rser=0.1
SYMBOL res 1296 416 R0
SYMATTR InstName Zpr
SYMATTR Value 3
TEXT 472 88 Left 2 !.tran 0 1m 0 10n
TEXT 128 48 Left 2 !.lib "/Users/dthr001/Library/Application Support/LTspice/lib/sub/C2M0025120D.lib"
TEXT 472 120 Left 2 !.param fs=85k
TEXT 552 248 Left 2 !K1 Ltx1 Ltx2 0.99
