Version 4
SHEET 1 1856 1176
WIRE 240 208 64 208
WIRE 464 208 240 208
WIRE 816 208 464 208
WIRE 464 304 464 208
WIRE 816 304 816 208
WIRE 512 320 496 320
WIRE 864 320 848 320
WIRE 1232 336 1072 336
WIRE 416 384 400 384
WIRE 512 384 496 384
WIRE 768 384 752 384
WIRE 864 384 848 384
WIRE 1232 416 1232 336
WIRE 64 448 64 208
WIRE 464 448 464 416
WIRE 608 448 464 448
WIRE 1072 448 1072 336
WIRE 1072 448 608 448
WIRE 816 512 816 416
WIRE 928 512 816 512
WIRE 1072 512 928 512
WIRE 464 560 464 448
WIRE 816 560 816 512
WIRE 512 576 496 576
WIRE 864 576 848 576
WIRE 1072 608 1072 512
WIRE 1232 608 1232 496
WIRE 1232 608 1072 608
WIRE 416 640 400 640
WIRE 512 640 496 640
WIRE 768 640 752 640
WIRE 864 640 848 640
WIRE 64 752 64 528
WIRE 320 752 64 752
WIRE 464 752 464 672
WIRE 464 752 320 752
WIRE 816 752 816 672
WIRE 816 752 464 752
WIRE 320 768 320 752
WIRE 16 992 16 976
WIRE 160 992 160 976
WIRE 304 992 304 976
WIRE 448 992 448 976
WIRE 160 1088 160 1072
WIRE 448 1088 448 1072
FLAG 320 768 0
FLAG 400 384 D1
FLAG 400 640 D2
FLAG 512 640 Tc2
FLAG 512 384 Tc1
FLAG 240 208 Vin
FLAG 608 448 Vpa
FLAG 16 1072 0
FLAG 16 896 D2
FLAG 160 896 D1
FLAG 608 1072 0
FLAG 608 992 Tj1
FLAG 896 1056 Vpa
FLAG 1008 976 Vpa
FLAG 1008 1056 0
FLAG 896 976 Vin
FLAG 160 1088 Vpa
FLAG 512 576 Tj2
FLAG 512 320 Tj1
FLAG 720 1072 0
FLAG 720 992 Tj2
FLAG 752 384 D3
FLAG 752 640 D4
FLAG 864 640 Tc2
FLAG 864 384 Tc1
FLAG 928 512 Vpb
FLAG 864 576 Tj2
FLAG 864 320 Tj1
FLAG 304 1072 0
FLAG 304 896 D4
FLAG 448 896 D3
FLAG 448 1088 Vpb
FLAG 1136 1056 Vpb
FLAG 1248 976 Vpb
FLAG 1248 1056 0
FLAG 1136 976 Vin
SYMBOL Wolfspeed/nmos_TO247_3L 416 560 R0
WINDOW 3 -124 -12 Left 2
WINDOW 0 11 -36 Left 2
SYMATTR Value C2M0025120D
SYMATTR InstName U2
SYMBOL voltage 608 976 R0
SYMATTR InstName V1
SYMATTR Value 25
SYMBOL voltage 64 432 R0
SYMATTR InstName V2
SYMATTR Value 800
SYMATTR SpiceLine Rser=10m
SYMBOL voltage 16 976 R0
WINDOW 0 40 47 Left 2
WINDOW 3 39 75 Invisible 2
SYMATTR InstName V3
SYMATTR Value PULSE(-4 15 {D/fs+Td} 10n 10n {(1-D)/fs-Td} {1/fs})
SYMBOL res 0 880 R0
WINDOW 0 44 50 Left 2
WINDOW 3 43 74 Left 2
SYMATTR InstName R2
SYMATTR Value 2.5
SYMBOL Wolfspeed/nmos_TO247_3L 416 304 R0
WINDOW 3 -125 -11 Left 2
WINDOW 0 10 -37 Left 2
SYMATTR Value C2M0025120D
SYMATTR InstName U1
SYMBOL current 1232 416 R0
WINDOW 3 24 80 Invisible 2
SYMATTR InstName Ipi
SYMATTR Value SINE(0 19.8 {fs} 0 0 {-Td*fs*360+1-(D-0.5)*180-10})
SYMBOL voltage 160 976 R0
WINDOW 0 40 47 Left 2
WINDOW 3 40 69 Invisible 2
SYMATTR InstName V4
SYMATTR Value PULSE(-4 15 {Td} 10n 10n {D/fs-Td} {1/fs})
SYMBOL res 144 880 R0
WINDOW 0 44 50 Left 2
WINDOW 3 43 74 Left 2
SYMATTR InstName R1
SYMATTR Value 2.5
SYMBOL res 880 960 R0
WINDOW 0 40 49 Left 2
SYMATTR InstName R3
SYMATTR Value 1Meg
SYMBOL res 992 960 R0
WINDOW 0 42 51 Left 2
SYMATTR InstName R4
SYMATTR Value 1Meg
SYMBOL voltage 720 976 R0
SYMATTR InstName V5
SYMATTR Value 25
SYMBOL Wolfspeed/nmos_TO247_3L 768 560 R0
WINDOW 3 -124 -12 Left 2
WINDOW 0 11 -36 Left 2
SYMATTR Value C2M0025120D
SYMATTR InstName U4
SYMBOL Wolfspeed/nmos_TO247_3L 768 304 R0
WINDOW 3 -125 -11 Left 2
WINDOW 0 10 -37 Left 2
SYMATTR Value C2M0025120D
SYMATTR InstName U3
SYMBOL voltage 304 976 R0
WINDOW 0 40 47 Left 2
WINDOW 3 39 75 Invisible 2
SYMATTR InstName V6
SYMATTR Value PULSE(-4 15 {Td+0.5*D/fs-0.5*(1-D)/fs} 10n 10n {(1-D)/fs-Td} {1/fs})
SYMBOL res 288 880 R0
WINDOW 0 44 50 Left 2
WINDOW 3 43 74 Left 2
SYMATTR InstName R5
SYMATTR Value 2.5
SYMBOL voltage 448 976 R0
WINDOW 0 40 47 Left 2
WINDOW 3 40 69 Invisible 2
SYMATTR InstName V7
SYMATTR Value PULSE(-4 15 {(1-D)/fs+Td+0.5*D/fs-0.5*(1-D)/fs} 10n 10n {D/fs-Td} {1/fs})
SYMBOL res 432 880 R0
WINDOW 0 44 50 Left 2
WINDOW 3 43 74 Left 2
SYMATTR InstName R6
SYMATTR Value 2.5
SYMBOL res 1120 960 R0
WINDOW 0 40 49 Left 2
SYMATTR InstName R7
SYMATTR Value 1Meg
SYMBOL res 1232 960 R0
WINDOW 0 42 51 Left 2
SYMATTR InstName R8
SYMATTR Value 1Meg
TEXT 424 112 Left 2 !.tran 0 10m 0 5n
TEXT 80 72 Left 2 !.lib "/Users/dthr001/Library/Application Support/LTspice/lib/sub/C2M0025120D.lib"
TEXT 320 144 Left 2 !.param Td=300n fs=85k D=0.5 Php=-90
