Version 4
SHEET 1 2108 1984
WIRE 752 304 592 304
WIRE 816 304 752 304
WIRE 992 304 896 304
WIRE 1040 304 992 304
WIRE 1168 304 1104 304
WIRE 1248 304 1168 304
WIRE 1280 304 1248 304
WIRE 592 320 592 304
WIRE 752 320 752 304
WIRE 112 368 -80 368
WIRE 384 368 208 368
WIRE 464 368 384 368
WIRE 1280 400 1280 304
WIRE -80 416 -80 368
WIRE 112 416 112 368
WIRE 208 416 208 368
WIRE 384 416 384 368
WIRE 464 416 464 368
WIRE 592 416 592 384
WIRE 592 416 464 416
WIRE 992 416 992 304
WIRE 1168 416 1168 304
WIRE 1040 432 1024 432
WIRE 752 480 752 384
WIRE 752 480 464 480
WIRE 592 496 592 416
WIRE 752 496 752 480
WIRE 944 496 912 496
WIRE 1040 496 1024 496
WIRE -80 544 -80 496
WIRE 48 544 -80 544
WIRE 112 544 112 496
WIRE 112 544 48 544
WIRE 208 544 208 496
WIRE 384 544 384 480
WIRE 384 544 208 544
WIRE 464 544 464 480
WIRE 464 544 384 544
WIRE 48 560 48 544
WIRE 592 592 592 560
WIRE 656 592 592 592
WIRE 752 592 752 560
WIRE 752 592 656 592
WIRE 992 592 992 528
WIRE 992 592 752 592
WIRE 1168 592 1168 480
WIRE 1168 592 992 592
WIRE 1280 592 1280 480
WIRE 1280 592 1168 592
WIRE 656 608 656 592
WIRE 160 800 160 784
FLAG 48 560 0
FLAG 656 608 0
FLAG 1248 304 Vout
FLAG 160 800 0
FLAG 320 784 0
FLAG 320 704 Tjt
FLAG 912 496 G1
FLAG 1040 432 Tjt
FLAG 160 624 G1
SYMBOL ind2 96 512 M180
WINDOW 0 -41 38 Left 2
WINDOW 3 -83 8 Left 2
SYMATTR InstName Lpt
SYMATTR Value 18.73µ
SYMATTR Type ind
SYMBOL ind2 224 512 R180
WINDOW 0 -40 40 Left 2
WINDOW 3 -80 10 Left 2
SYMATTR InstName Lst
SYMATTR Value 18.73µ
SYMATTR Type ind
SYMATTR SpiceLine Rser=10m
SYMBOL current -80 416 R0
WINDOW 3 24 80 Invisible 2
SYMATTR Value SINE(0 70.71 85k 0 0 0)
SYMATTR InstName Ipt
SYMBOL cap 400 480 R180
WINDOW 0 24 56 Left 2
WINDOW 3 24 8 Left 2
SYMATTR InstName Cst
SYMATTR Value 187.2n
SYMBOL diode 608 384 R180
WINDOW 0 24 64 Left 2
WINDOW 3 24 0 Left 2
SYMATTR InstName D1
SYMATTR Value ID
SYMBOL diode 608 560 R180
WINDOW 0 24 64 Left 2
WINDOW 3 24 0 Left 2
SYMATTR InstName D2
SYMATTR Value ID
SYMBOL diode 768 384 R180
WINDOW 0 24 64 Left 2
WINDOW 3 24 0 Left 2
SYMATTR InstName D3
SYMATTR Value ID
SYMBOL diode 768 560 R180
WINDOW 0 24 64 Left 2
WINDOW 3 24 0 Left 2
SYMATTR InstName D4
SYMATTR Value ID
SYMBOL cap 1184 480 R180
WINDOW 0 24 56 Left 2
WINDOW 3 24 8 Left 2
SYMATTR InstName Cdc
SYMATTR Value 100µ
SYMBOL res 1264 384 R0
SYMATTR InstName RLdc
SYMATTR Value 182
SYMBOL ind2 800 320 R270
WINDOW 0 32 56 VTop 2
WINDOW 3 4 56 VBottom 2
SYMATTR InstName Ldc
SYMATTR Value 1m
SYMATTR Type ind
SYMATTR SpiceLine Rser=.1
SYMBOL Wolfspeed/nmos_TO247_3L 944 416 R0
WINDOW 3 -124 -12 Left 2
WINDOW 0 11 -36 Left 2
SYMATTR Value C2M0025120D
SYMATTR InstName U1
SYMBOL voltage 160 688 R0
WINDOW 0 40 47 Left 2
WINDOW 3 39 75 Invisible 2
SYMATTR InstName V1
SYMATTR Value PULSE(-4 15 0 10n 10n {D/fs} {1/fs})
SYMBOL diode 1040 320 R270
WINDOW 0 32 32 VTop 2
WINDOW 3 0 32 VBottom 2
SYMATTR InstName D5
SYMATTR Value ID
SYMBOL voltage 320 688 R0
SYMATTR InstName V2
SYMATTR Value 25
SYMBOL res 144 608 R0
SYMATTR InstName Rg1
SYMATTR Value 2.5
TEXT 24 56 Left 2 !.tran 0 100m 1m 0.1u
TEXT 24 96 Left 2 !.model ID D(Ron=0 Roff=1Meg Vfwd=0 Vrev=1.2kv)
TEXT 72 336 Left 2 !K1 Lpt Lst 0.1
TEXT 24 16 Left 2 !.lib "/Users/dthr001/Library/Application Support/LTspice/lib/sub/C2M0025120D.lib"
TEXT 24 136 Left 2 !.param fs= 100 D=0.5
TEXT 24 176 Left 2 !.ic V(Vout)=500
